<?xml version="1.0" encoding="UTF-8"?>
<!DOCTYPE network SYSTEM "http://www.matsim.org/files/dtd/network_v2.dtd">
<network>

<!-- ====================================================================== -->

	<nodes>
		<node id="n_1" x="0.0" y="0.0" >
		</node>
		<node id="n_2" x="1000.0" y="0.0" >
		</node>
		<node id="n_3" x="1500.0" y="-866.0254037844386" >
		</node>
		<node id="n_4" x="2500.0" y="-866.0254037844386" >
		</node>
		<node id="n_5" x="3000.0" y="0.0" >
		</node>
		<node id="n_6" x="2500.0" y="866.0254037844386" >
		</node>
		<node id="n_7" x="1500.0" y="866.0254037844386" >
		</node>
		<node id="n_8" x="4000.0" y="0.0" >
		</node>
	</nodes>

<!-- ====================================================================== -->

	<links capperiod="01:00:00" effectivecellsize="7.5" effectivelanewidth="3.75">
		<link id="l_1_AB" from="n_1" to="n_2" length="1000.0" freespeed="25.0" capacity="20.0" permlanes="1.0" oneway="1" modes="car" >
		</link>
		<link id="l_1_BA" from="n_2" to="n_1" length="1000.0" freespeed="25.0" capacity="20.0" permlanes="1.0" oneway="1" modes="car" >
		</link>
		<link id="l_2_AB" from="n_2" to="n_5" length="2000.0" freespeed="25.0" capacity="20.0" permlanes="1.0" oneway="1" modes="car" >
		</link>
		<link id="l_2_BA" from="n_5" to="n_2" length="2000.0" freespeed="25.0" capacity="20.0" permlanes="1.0" oneway="1" modes="car" >
		</link>
		<link id="l_3_AB" from="n_2" to="n_3" length="999.9999999999999" freespeed="25.0" capacity="20.0" permlanes="1.0" oneway="1" modes="car" >
		</link>
		<link id="l_3_BA" from="n_3" to="n_2" length="999.9999999999999" freespeed="25.0" capacity="20.0" permlanes="1.0" oneway="1" modes="car" >
		</link>
		<link id="l_4_AB" from="n_3" to="n_4" length="1000.0" freespeed="25.0" capacity="20.0" permlanes="1.0" oneway="1" modes="car" >
		</link>
		<link id="l_4_BA" from="n_4" to="n_3" length="1000.0" freespeed="25.0" capacity="20.0" permlanes="1.0" oneway="1" modes="car" >
		</link>
		<link id="l_5_AB" from="n_4" to="n_5" length="999.9999999999999" freespeed="25.0" capacity="20.0" permlanes="1.0" oneway="1" modes="car" >
		</link>
		<link id="l_5_BA" from="n_5" to="n_4" length="999.9999999999999" freespeed="25.0" capacity="20.0" permlanes="1.0" oneway="1" modes="car" >
		</link>
		<link id="l_6_AB" from="n_2" to="n_7" length="999.9999999999999" freespeed="25.0" capacity="20.0" permlanes="1.0" oneway="1" modes="car" >
		</link>
		<link id="l_6_BA" from="n_7" to="n_2" length="999.9999999999999" freespeed="25.0" capacity="20.0" permlanes="1.0" oneway="1" modes="car" >
		</link>
		<link id="l_7_AB" from="n_7" to="n_6" length="1000.0" freespeed="25.0" capacity="20.0" permlanes="1.0" oneway="1" modes="car" >
		</link>
		<link id="l_7_BA" from="n_6" to="n_7" length="1000.0" freespeed="25.0" capacity="20.0" permlanes="1.0" oneway="1" modes="car" >
		</link>
		<link id="l_8_AB" from="n_6" to="n_5" length="999.9999999999999" freespeed="25.0" capacity="20.0" permlanes="1.0" oneway="1" modes="car" >
		</link>
		<link id="l_8_BA" from="n_5" to="n_6" length="999.9999999999999" freespeed="25.0" capacity="20.0" permlanes="1.0" oneway="1" modes="car" >
		</link>
		<link id="l_9_AB" from="n_5" to="n_8" length="1000.0" freespeed="25.0" capacity="20.0" permlanes="1.0" oneway="1" modes="car" >
		</link>
		<link id="l_9_BA" from="n_8" to="n_5" length="1000.0" freespeed="25.0" capacity="20.0" permlanes="1.0" oneway="1" modes="car" >
		</link>
	</links>

<!-- ====================================================================== -->

</network>
